notebook_tutorials/synthetic_net_opendss/master_sample_4.dss
clear
new circuit.synthetic_net basekv=157.6864406779661 pu=1.0 phases=3
edit Vsource.source bus1=bus_68.1.2.3

!---------------- LINES ----------------

new linecode.LCode_0 nphases=1 rmatrix=[0.918024] xmatrix=[1.381240] units=km
new line.line_0 bus1=bus_0.1 bus2=bus_1.1 linecode=LCode_0 length=1.0 units=km
new linecode.LCode_1 nphases=1 rmatrix=[0.995922] xmatrix=[1.242115] units=km
new line.line_1 bus1=bus_0.1 bus2=bus_2.1 linecode=LCode_1 length=1.0 units=km
new linecode.LCode_2 nphases=1 rmatrix=[0.524319] xmatrix=[1.242115] units=km
new line.line_2 bus1=bus_3.1 bus2=bus_4.1 linecode=LCode_2 length=1.0 units=km
new linecode.LCode_3 nphases=1 rmatrix=[0.927711] xmatrix=[1.242115] units=km
new line.line_3 bus1=bus_2.1 bus2=bus_4.1 linecode=LCode_3 length=1.0 units=km
new linecode.LCode_4 nphases=1 rmatrix=[0.561857] xmatrix=[1.282457] units=km
new line.line_4 bus1=bus_4.1 bus2=bus_5.1 linecode=LCode_4 length=1.0 units=km
new linecode.LCode_5 nphases=1 rmatrix=[0.791910] xmatrix=[1.277329] units=km
new line.line_5 bus1=bus_5.1 bus2=bus_6.1 linecode=LCode_5 length=1.0 units=km
new linecode.LCode_6 nphases=1 rmatrix=[0.891285] xmatrix=[1.242115] units=km
new line.line_6 bus1=bus_7.1 bus2=bus_8.1 linecode=LCode_6 length=1.0 units=km
new linecode.LCode_7 nphases=1 rmatrix=[0.831458] xmatrix=[1.242115] units=km
new line.line_7 bus1=bus_8.1 bus2=bus_9.1 linecode=LCode_7 length=1.0 units=km
new linecode.LCode_8 nphases=1 rmatrix=[1.214997] xmatrix=[1.242115] units=km
new line.line_8 bus1=bus_3.1 bus2=bus_10.1 linecode=LCode_8 length=1.0 units=km
new linecode.LCode_9 nphases=1 rmatrix=[0.687440] xmatrix=[1.242115] units=km
new line.line_9 bus1=bus_4.1 bus2=bus_10.1 linecode=LCode_9 length=1.0 units=km
new linecode.LCode_10 nphases=1 rmatrix=[0.671030] xmatrix=[1.242115] units=km
new line.line_10 bus1=bus_10.1 bus2=bus_11.1 linecode=LCode_10 length=1.0 units=km
new linecode.LCode_11 nphases=1 rmatrix=[0.658009] xmatrix=[1.242115] units=km
new line.line_11 bus1=bus_1.1 bus2=bus_11.1 linecode=LCode_11 length=1.0 units=km
new linecode.LCode_12 nphases=1 rmatrix=[0.733684] xmatrix=[1.391954] units=km
new line.line_12 bus1=bus_2.1 bus2=bus_11.1 linecode=LCode_12 length=1.0 units=km
new linecode.LCode_13 nphases=1 rmatrix=[0.768771] xmatrix=[1.244442] units=km
new line.line_13 bus1=bus_6.1 bus2=bus_11.1 linecode=LCode_13 length=1.0 units=km
new linecode.LCode_16 nphases=2 rmatrix=[0.637150 | 0.059160 0.637150] xmatrix=[1.242115 | 1.024695 1.242115] units=km
new line.line_16 bus1=bus_12.2.3 bus2=bus_14.2.3 linecode=LCode_16 length=1.0 units=km
new linecode.LCode_17 nphases=2 rmatrix=[0.579984 | 0.059160 0.579984] xmatrix=[1.417509 | 1.024695 1.417509] units=km
new line.line_17 bus1=bus_13.2.3 bus2=bus_14.2.3 linecode=LCode_17 length=1.0 units=km
new linecode.LCode_18 nphases=1 rmatrix=[0.588670] xmatrix=[1.276849] units=km
new line.line_18 bus1=bus_11.1 bus2=bus_15.1 linecode=LCode_18 length=1.0 units=km
new linecode.LCode_20 nphases=1 rmatrix=[0.341735] xmatrix=[1.299633] units=km
new line.line_20 bus1=bus_15.1 bus2=bus_16.1 linecode=LCode_20 length=1.0 units=km
new linecode.LCode_21 nphases=1 rmatrix=[0.686349] xmatrix=[1.384424] units=km
new line.line_21 bus1=bus_16.1 bus2=bus_17.1 linecode=LCode_21 length=1.0 units=km
new linecode.LCode_23 nphases=1 rmatrix=[0.844329] xmatrix=[1.242541] units=km
new line.line_23 bus1=bus_18.3 bus2=bus_19.3 linecode=LCode_23 length=1.0 units=km
new linecode.LCode_24 nphases=1 rmatrix=[0.705536] xmatrix=[1.242115] units=km
new line.line_24 bus1=bus_14.3 bus2=bus_18.3 linecode=LCode_24 length=1.0 units=km
new linecode.LCode_25 nphases=1 rmatrix=[0.806797] xmatrix=[1.242115] units=km
new line.line_25 bus1=bus_19.3 bus2=bus_20.3 linecode=LCode_25 length=1.0 units=km
new linecode.LCode_26 nphases=1 rmatrix=[1.136140] xmatrix=[1.242115] units=km
new line.line_26 bus1=bus_20.3 bus2=bus_21.3 linecode=LCode_26 length=1.0 units=km
new linecode.LCode_27 nphases=1 rmatrix=[0.470273] xmatrix=[1.415540] units=km
new line.line_27 bus1=bus_21.3 bus2=bus_22.3 linecode=LCode_27 length=1.0 units=km
new linecode.LCode_28 nphases=1 rmatrix=[0.619019] xmatrix=[1.276150] units=km
new line.line_28 bus1=bus_22.3 bus2=bus_23.3 linecode=LCode_28 length=1.0 units=km
new linecode.LCode_29 nphases=1 rmatrix=[0.765370] xmatrix=[1.516927] units=km
new line.line_29 bus1=bus_22.3 bus2=bus_24.3 linecode=LCode_29 length=1.0 units=km
new linecode.LCode_30 nphases=1 rmatrix=[0.567109] xmatrix=[1.371823] units=km
new line.line_30 bus1=bus_24.3 bus2=bus_26.3 linecode=LCode_30 length=1.0 units=km
new linecode.LCode_31 nphases=1 rmatrix=[1.010962] xmatrix=[1.297831] units=km
new line.line_31 bus1=bus_26.3 bus2=bus_27.3 linecode=LCode_31 length=1.0 units=km
new linecode.LCode_32 nphases=1 rmatrix=[0.899337] xmatrix=[1.351176] units=km
new line.line_32 bus1=bus_27.3 bus2=bus_28.3 linecode=LCode_32 length=1.0 units=km
new linecode.LCode_33 nphases=1 rmatrix=[0.531585] xmatrix=[1.253552] units=km
new line.line_33 bus1=bus_7.1 bus2=bus_29.1 linecode=LCode_33 length=1.0 units=km
new linecode.LCode_36 nphases=1 rmatrix=[0.465470] xmatrix=[1.242115] units=km
new line.line_36 bus1=bus_28.3 bus2=bus_30.3 linecode=LCode_36 length=1.0 units=km
new linecode.LCode_37 nphases=1 rmatrix=[0.547461] xmatrix=[1.246106] units=km
new line.line_37 bus1=bus_22.3 bus2=bus_31.3 linecode=LCode_37 length=1.0 units=km
new linecode.LCode_38 nphases=1 rmatrix=[0.730617] xmatrix=[1.266455] units=km
new line.line_38 bus1=bus_30.3 bus2=bus_31.3 linecode=LCode_38 length=1.0 units=km
new linecode.LCode_39 nphases=1 rmatrix=[0.700711] xmatrix=[1.325344] units=km
new line.line_39 bus1=bus_26.3 bus2=bus_31.3 linecode=LCode_39 length=1.0 units=km
new linecode.LCode_40 nphases=2 rmatrix=[0.915911 | 0.059160 0.915911] xmatrix=[1.245343 | 1.024695 1.245343] units=km
new line.line_40 bus1=bus_14.2.3 bus2=bus_32.2.3 linecode=LCode_40 length=1.0 units=km
new linecode.LCode_41 nphases=1 rmatrix=[0.394868] xmatrix=[1.288265] units=km
new line.line_41 bus1=bus_18.3 bus2=bus_33.3 linecode=LCode_41 length=1.0 units=km
new linecode.LCode_42 nphases=2 rmatrix=[0.201858 | 0.059160 0.201858] xmatrix=[1.335330 | 1.024695 1.335330] units=km
new line.line_42 bus1=bus_34.2.3 bus2=bus_35.2.3 linecode=LCode_42 length=1.0 units=km
new linecode.LCode_43 nphases=2 rmatrix=[0.791665 | 0.059160 0.791665] xmatrix=[1.289906 | 1.024695 1.289906] units=km
new line.line_43 bus1=bus_34.2.3 bus2=bus_36.2.3 linecode=LCode_43 length=1.0 units=km
new linecode.LCode_44 nphases=2 rmatrix=[0.656815 | 0.059160 0.656815] xmatrix=[1.242115 | 1.024695 1.242115] units=km
new line.line_44 bus1=bus_32.2.3 bus2=bus_36.2.3 linecode=LCode_44 length=1.0 units=km
new linecode.LCode_45 nphases=1 rmatrix=[0.804926] xmatrix=[1.294016] units=km
new line.line_45 bus1=bus_33.3 bus2=bus_35.3 linecode=LCode_45 length=1.0 units=km
new linecode.LCode_46 nphases=1 rmatrix=[0.825007] xmatrix=[1.242115] units=km
new line.line_46 bus1=bus_33.3 bus2=bus_36.3 linecode=LCode_46 length=1.0 units=km
new linecode.LCode_47 nphases=2 rmatrix=[0.971846 | 0.059160 0.971846] xmatrix=[1.242115 | 1.024695 1.242115] units=km
new line.line_47 bus1=bus_36.2.3 bus2=bus_38.2.3 linecode=LCode_47 length=1.0 units=km
new linecode.LCode_48 nphases=2 rmatrix=[0.522385 | 0.059160 0.522385] xmatrix=[1.242115 | 1.024695 1.242115] units=km
new line.line_48 bus1=bus_36.2.3 bus2=bus_39.2.3 linecode=LCode_48 length=1.0 units=km
new linecode.LCode_49 nphases=1 rmatrix=[0.454546] xmatrix=[1.554210] units=km
new line.line_49 bus1=bus_29.1 bus2=bus_37.1 linecode=LCode_49 length=1.0 units=km
new linecode.LCode_50 nphases=2 rmatrix=[0.787472 | 0.059160 0.787472] xmatrix=[1.242115 | 1.024695 1.242115] units=km
new line.line_50 bus1=bus_38.2.3 bus2=bus_39.2.3 linecode=LCode_50 length=1.0 units=km
new linecode.LCode_51 nphases=2 rmatrix=[0.346674 | 0.059160 0.346674] xmatrix=[1.242115 | 1.024695 1.242115] units=km
new line.line_51 bus1=bus_39.2.3 bus2=bus_40.2.3 linecode=LCode_51 length=1.0 units=km
new linecode.LCode_52 nphases=2 rmatrix=[0.595781 | 0.059160 0.595781] xmatrix=[1.341217 | 1.024695 1.341217] units=km
new line.line_52 bus1=bus_39.2.3 bus2=bus_41.2.3 linecode=LCode_52 length=1.0 units=km
new linecode.LCode_53 nphases=2 rmatrix=[0.437646 | 0.059160 0.437646] xmatrix=[1.355741 | 1.024695 1.355741] units=km
new line.line_53 bus1=bus_40.2.3 bus2=bus_41.2.3 linecode=LCode_53 length=1.0 units=km
new linecode.LCode_54 nphases=2 rmatrix=[0.971350 | 0.059160 0.971350] xmatrix=[1.287734 | 1.024695 1.287734] units=km
new line.line_54 bus1=bus_42.2.3 bus2=bus_43.2.3 linecode=LCode_54 length=1.0 units=km
new linecode.LCode_55 nphases=1 rmatrix=[0.632306] xmatrix=[1.242115] units=km
new line.line_55 bus1=bus_33.3 bus2=bus_42.3 linecode=LCode_55 length=1.0 units=km
new linecode.LCode_56 nphases=2 rmatrix=[1.070242 | 0.059160 1.070242] xmatrix=[1.308561 | 1.024695 1.308561] units=km
new line.line_56 bus1=bus_43.2.3 bus2=bus_44.2.3 linecode=LCode_56 length=1.0 units=km
new linecode.LCode_57 nphases=2 rmatrix=[0.266245 | 0.059160 0.266245] xmatrix=[1.242115 | 1.024695 1.242115] units=km
new line.line_57 bus1=bus_44.2.3 bus2=bus_45.2.3 linecode=LCode_57 length=1.0 units=km
new linecode.LCode_58 nphases=2 rmatrix=[0.597760 | 0.059160 0.597760] xmatrix=[1.282360 | 1.024695 1.282360] units=km
new line.line_58 bus1=bus_45.2.3 bus2=bus_46.2.3 linecode=LCode_58 length=1.0 units=km
new linecode.LCode_59 nphases=2 rmatrix=[0.765399 | 0.059160 0.765399] xmatrix=[1.300035 | 1.024695 1.300035] units=km
new line.line_59 bus1=bus_45.2.3 bus2=bus_47.2.3 linecode=LCode_59 length=1.0 units=km
new linecode.LCode_60 nphases=2 rmatrix=[1.003471 | 0.059160 1.003471] xmatrix=[1.302102 | 1.024695 1.302102] units=km
new line.line_60 bus1=bus_46.2.3 bus2=bus_48.2.3 linecode=LCode_60 length=1.0 units=km
new linecode.LCode_61 nphases=2 rmatrix=[0.201410 | 0.059160 0.201410] xmatrix=[1.242115 | 1.024695 1.242115] units=km
new line.line_61 bus1=bus_41.2.3 bus2=bus_48.2.3 linecode=LCode_61 length=1.0 units=km
new linecode.LCode_62 nphases=2 rmatrix=[0.220874 | 0.059160 0.220874] xmatrix=[1.247748 | 1.024695 1.247748] units=km
new line.line_62 bus1=bus_41.2.3 bus2=bus_48.2.3 linecode=LCode_62 length=1.0 units=km
new linecode.LCode_63 nphases=2 rmatrix=[0.593307 | 0.059160 0.593307] xmatrix=[1.360673 | 1.024695 1.360673] units=km
new line.line_63 bus1=bus_44.2.3 bus2=bus_48.2.3 linecode=LCode_63 length=1.0 units=km
new linecode.LCode_64 nphases=2 rmatrix=[0.700495 | 0.059160 0.700495] xmatrix=[1.242115 | 1.024695 1.242115] units=km
new line.line_64 bus1=bus_47.2.3 bus2=bus_48.2.3 linecode=LCode_64 length=1.0 units=km
new linecode.LCode_65 nphases=2 rmatrix=[0.585199 | 0.059160 0.585199] xmatrix=[1.242115 | 1.024695 1.242115] units=km
new line.line_65 bus1=bus_48.2.3 bus2=bus_49.2.3 linecode=LCode_65 length=1.0 units=km
new linecode.LCode_66 nphases=2 rmatrix=[1.525408 | 0.059160 1.525408] xmatrix=[1.568811 | 1.024695 1.568811] units=km
new line.line_66 bus1=bus_48.2.3 bus2=bus_50.2.3 linecode=LCode_66 length=1.0 units=km
new linecode.LCode_67 nphases=2 rmatrix=[0.767894 | 0.059160 0.767894] xmatrix=[1.242115 | 1.024695 1.242115] units=km
new line.line_67 bus1=bus_50.2.3 bus2=bus_51.2.3 linecode=LCode_67 length=1.0 units=km
new linecode.LCode_68 nphases=2 rmatrix=[1.317365 | 0.059160 1.317365] xmatrix=[1.242115 | 1.024695 1.242115] units=km
new line.line_68 bus1=bus_51.2.3 bus2=bus_52.2.3 linecode=LCode_68 length=1.0 units=km
new linecode.LCode_69 nphases=2 rmatrix=[0.750862 | 0.059160 0.750862] xmatrix=[1.293576 | 1.024695 1.293576] units=km
new line.line_69 bus1=bus_52.2.3 bus2=bus_53.2.3 linecode=LCode_69 length=1.0 units=km
new linecode.LCode_70 nphases=2 rmatrix=[0.197847 | 0.059160 0.197847] xmatrix=[1.242115 | 1.024695 1.242115] units=km
new line.line_70 bus1=bus_48.2.3 bus2=bus_53.2.3 linecode=LCode_70 length=1.0 units=km
new linecode.LCode_71 nphases=2 rmatrix=[0.851152 | 0.059160 0.851152] xmatrix=[1.334709 | 1.024695 1.334709] units=km
new line.line_71 bus1=bus_48.2.3 bus2=bus_53.2.3 linecode=LCode_71 length=1.0 units=km
new linecode.LCode_73 nphases=1 rmatrix=[0.665613] xmatrix=[1.371579] units=km
new line.line_73 bus1=bus_53.3 bus2=bus_55.3 linecode=LCode_73 length=1.0 units=km
new linecode.LCode_75 nphases=1 rmatrix=[0.623804] xmatrix=[1.264894] units=km
new line.line_75 bus1=bus_55.3 bus2=bus_56.3 linecode=LCode_75 length=1.0 units=km
new linecode.LCode_76 nphases=2 rmatrix=[0.190089 | 0.059160 0.190089] xmatrix=[1.416242 | 1.024695 1.416242] units=km
new line.line_76 bus1=bus_49.2.3 bus2=bus_56.2.3 linecode=LCode_76 length=1.0 units=km
new linecode.LCode_77 nphases=1 rmatrix=[0.749853] xmatrix=[1.447649] units=km
new line.line_77 bus1=bus_55.3 bus2=bus_57.3 linecode=LCode_77 length=1.0 units=km
new linecode.LCode_78 nphases=2 rmatrix=[1.230720 | 0.059160 1.230720] xmatrix=[1.359899 | 1.024695 1.359899] units=km
new line.line_78 bus1=bus_50.2.3 bus2=bus_57.2.3 linecode=LCode_78 length=1.0 units=km
new linecode.LCode_79 nphases=2 rmatrix=[0.269736 | 0.059160 0.269736] xmatrix=[1.270861 | 1.024695 1.270861] units=km
new line.line_79 bus1=bus_53.2.3 bus2=bus_58.2.3 linecode=LCode_79 length=1.0 units=km
new linecode.LCode_80 nphases=1 rmatrix=[0.389878] xmatrix=[1.661356] units=km
new line.line_80 bus1=bus_55.3 bus2=bus_58.3 linecode=LCode_80 length=1.0 units=km
new linecode.LCode_81 nphases=1 rmatrix=[0.517137] xmatrix=[1.493552] units=km
new line.line_81 bus1=bus_55.3 bus2=bus_58.3 linecode=LCode_81 length=1.0 units=km
new linecode.LCode_83 nphases=2 rmatrix=[0.427282 | 0.059160 0.427282] xmatrix=[1.242115 | 1.024695 1.242115] units=km
new line.line_83 bus1=bus_58.2.3 bus2=bus_59.2.3 linecode=LCode_83 length=1.0 units=km
new linecode.LCode_84 nphases=1 rmatrix=[0.692580] xmatrix=[1.347744] units=km
new line.line_84 bus1=bus_58.3 bus2=bus_60.3 linecode=LCode_84 length=1.0 units=km
new linecode.LCode_85 nphases=1 rmatrix=[1.202072] xmatrix=[1.543030] units=km
new line.line_85 bus1=bus_59.3 bus2=bus_60.3 linecode=LCode_85 length=1.0 units=km
new linecode.LCode_86 nphases=1 rmatrix=[0.640548] xmatrix=[1.301086] units=km
new line.line_86 bus1=bus_59.3 bus2=bus_61.3 linecode=LCode_86 length=1.0 units=km
new linecode.LCode_87 nphases=1 rmatrix=[0.615217] xmatrix=[1.260285] units=km
new line.line_87 bus1=bus_60.3 bus2=bus_61.3 linecode=LCode_87 length=1.0 units=km
new linecode.LCode_88 nphases=1 rmatrix=[0.723466] xmatrix=[1.499490] units=km
new line.line_88 bus1=bus_62.1 bus2=bus_63.1 linecode=LCode_88 length=1.0 units=km
new linecode.LCode_89 nphases=1 rmatrix=[0.718015] xmatrix=[1.242115] units=km
new line.line_89 bus1=bus_37.1 bus2=bus_64.1 linecode=LCode_89 length=1.0 units=km
new linecode.LCode_90 nphases=1 rmatrix=[0.575744] xmatrix=[1.593876] units=km
new line.line_90 bus1=bus_63.1 bus2=bus_64.1 linecode=LCode_90 length=1.0 units=km
new linecode.LCode_91 nphases=2 rmatrix=[0.278980 | 0.059160 0.278980] xmatrix=[1.403176 | 1.024695 1.403176] units=km
new line.line_91 bus1=bus_48.2.3 bus2=bus_65.2.3 linecode=LCode_91 length=1.0 units=km
new linecode.LCode_92 nphases=2 rmatrix=[1.043185 | 0.059160 1.043185] xmatrix=[1.242115 | 1.024695 1.242115] units=km
new line.line_92 bus1=bus_48.2.3 bus2=bus_65.2.3 linecode=LCode_92 length=1.0 units=km
new linecode.LCode_93 nphases=1 rmatrix=[0.921493] xmatrix=[1.242115] units=km
new line.line_93 bus1=bus_61.3 bus2=bus_65.3 linecode=LCode_93 length=1.0 units=km
new linecode.LCode_94 nphases=1 rmatrix=[0.714276] xmatrix=[1.242115] units=km
new line.line_94 bus1=bus_61.3 bus2=bus_66.3 linecode=LCode_94 length=1.0 units=km
new linecode.LCode_95 nphases=2 rmatrix=[0.764708 | 0.059160 0.764708] xmatrix=[1.538335 | 1.024695 1.538335] units=km
new line.line_95 bus1=bus_65.2.3 bus2=bus_66.2.3 linecode=LCode_95 length=1.0 units=km
new linecode.LCode_96 nphases=2 rmatrix=[0.266013 | 0.059160 0.266013] xmatrix=[1.243271 | 1.024695 1.243271] units=km
new line.line_96 bus1=bus_46.2.3 bus2=bus_68.2.3 linecode=LCode_96 length=1.0 units=km
new linecode.LCode_97 nphases=2 rmatrix=[0.649008 | 0.059160 0.649008] xmatrix=[1.242115 | 1.024695 1.242115] units=km
new line.line_97 bus1=bus_48.2.3 bus2=bus_68.2.3 linecode=LCode_97 length=1.0 units=km
new linecode.LCode_98 nphases=2 rmatrix=[1.101445 | 0.059160 1.101445] xmatrix=[1.357038 | 0.940589 1.357038] units=km
new line.line_98 bus1=bus_68.1.3 bus2=bus_69.1.3 linecode=LCode_98 length=1.0 units=km
new linecode.LCode_99 nphases=1 rmatrix=[0.468529] xmatrix=[1.242115] units=km
new line.line_99 bus1=bus_23.3 bus2=bus_69.3 linecode=LCode_99 length=1.0 units=km
new linecode.LCode_100 nphases=2 rmatrix=[0.873200 | 0.059160 0.873200] xmatrix=[1.286740 | 0.940589 1.286740] units=km
new line.line_100 bus1=bus_69.1.3 bus2=bus_70.1.3 linecode=LCode_100 length=1.0 units=km
new linecode.LCode_101 nphases=1 rmatrix=[0.278695] xmatrix=[1.684695] units=km
new line.line_101 bus1=bus_23.3 bus2=bus_71.3 linecode=LCode_101 length=1.0 units=km
new linecode.LCode_102 nphases=1 rmatrix=[0.322058] xmatrix=[1.341857] units=km
new line.line_102 bus1=bus_70.3 bus2=bus_71.3 linecode=LCode_102 length=1.0 units=km
new linecode.LCode_104 nphases=2 rmatrix=[0.573618 | 0.059160 0.573618] xmatrix=[1.242115 | 0.940589 1.242115] units=km
new line.line_104 bus1=bus_69.1.3 bus2=bus_73.1.3 linecode=LCode_104 length=1.0 units=km
new linecode.LCode_105 nphases=1 rmatrix=[1.041350] xmatrix=[1.542925] units=km
new line.line_105 bus1=bus_69.3 bus2=bus_74.3 linecode=LCode_105 length=1.0 units=km
new linecode.LCode_106 nphases=2 rmatrix=[1.061395 | 0.059160 1.061395] xmatrix=[1.242115 | 1.024695 1.242115] units=km
new line.line_106 bus1=bus_68.2.3 bus2=bus_74.2.3 linecode=LCode_106 length=1.0 units=km
new linecode.LCode_107 nphases=1 rmatrix=[0.589785] xmatrix=[1.456660] units=km
new line.line_107 bus1=bus_73.3 bus2=bus_74.3 linecode=LCode_107 length=1.0 units=km
new linecode.LCode_108 nphases=1 rmatrix=[0.251794] xmatrix=[1.242115] units=km
new line.line_108 bus1=bus_75.2 bus2=bus_76.2 linecode=LCode_108 length=1.0 units=km
new linecode.LCode_109 nphases=1 rmatrix=[0.599373] xmatrix=[1.309650] units=km
new line.line_109 bus1=bus_68.2 bus2=bus_76.2 linecode=LCode_109 length=1.0 units=km
new linecode.LCode_110 nphases=1 rmatrix=[0.689367] xmatrix=[1.390101] units=km
new line.line_110 bus1=bus_74.2 bus2=bus_76.2 linecode=LCode_110 length=1.0 units=km
new linecode.LCode_111 nphases=1 rmatrix=[0.548861] xmatrix=[1.448164] units=km
new line.line_111 bus1=bus_76.2 bus2=bus_77.2 linecode=LCode_111 length=1.0 units=km
new linecode.LCode_112 nphases=1 rmatrix=[0.792707] xmatrix=[1.452166] units=km
new line.line_112 bus1=bus_77.2 bus2=bus_78.2 linecode=LCode_112 length=1.0 units=km
new linecode.LCode_113 nphases=1 rmatrix=[0.210789] xmatrix=[1.251490] units=km
new line.line_113 bus1=bus_76.2 bus2=bus_79.2 linecode=LCode_113 length=1.0 units=km
new linecode.LCode_114 nphases=1 rmatrix=[0.205923] xmatrix=[1.242115] units=km
new line.line_114 bus1=bus_76.2 bus2=bus_79.2 linecode=LCode_114 length=1.0 units=km
new linecode.LCode_115 nphases=1 rmatrix=[0.321501] xmatrix=[1.242115] units=km
new line.line_115 bus1=bus_78.2 bus2=bus_79.2 linecode=LCode_115 length=1.0 units=km
new linecode.LCode_116 nphases=1 rmatrix=[1.030796] xmatrix=[1.242115] units=km
new line.line_116 bus1=bus_76.2 bus2=bus_81.2 linecode=LCode_116 length=1.0 units=km
new linecode.LCode_117 nphases=1 rmatrix=[1.049664] xmatrix=[1.300106] units=km
new line.line_117 bus1=bus_81.2 bus2=bus_82.2 linecode=LCode_117 length=1.0 units=km
new linecode.LCode_118 nphases=1 rmatrix=[0.641718] xmatrix=[1.242115] units=km
new line.line_118 bus1=bus_82.2 bus2=bus_83.2 linecode=LCode_118 length=1.0 units=km
new linecode.LCode_119 nphases=1 rmatrix=[1.061207] xmatrix=[1.453708] units=km
new line.line_119 bus1=bus_82.2 bus2=bus_84.2 linecode=LCode_119 length=1.0 units=km
new linecode.LCode_120 nphases=1 rmatrix=[0.186771] xmatrix=[1.242115] units=km
new line.line_120 bus1=bus_83.2 bus2=bus_84.2 linecode=LCode_120 length=1.0 units=km
new linecode.LCode_121 nphases=1 rmatrix=[0.694043] xmatrix=[1.242115] units=km
new line.line_121 bus1=bus_84.2 bus2=bus_85.2 linecode=LCode_121 length=1.0 units=km
new linecode.LCode_122 nphases=1 rmatrix=[0.370783] xmatrix=[1.268024] units=km
new line.line_122 bus1=bus_84.2 bus2=bus_87.2 linecode=LCode_122 length=1.0 units=km
new linecode.LCode_123 nphases=1 rmatrix=[0.742370] xmatrix=[1.242115] units=km
new line.line_123 bus1=bus_84.2 bus2=bus_88.2 linecode=LCode_123 length=1.0 units=km
new linecode.LCode_124 nphases=1 rmatrix=[0.260335] xmatrix=[2.072534] units=km
new line.line_124 bus1=bus_87.2 bus2=bus_88.2 linecode=LCode_124 length=1.0 units=km
new linecode.LCode_125 nphases=1 rmatrix=[0.587244] xmatrix=[1.242115] units=km
new line.line_125 bus1=bus_88.2 bus2=bus_89.2 linecode=LCode_125 length=1.0 units=km
new linecode.LCode_126 nphases=1 rmatrix=[0.490699] xmatrix=[1.377913] units=km
new line.line_126 bus1=bus_88.2 bus2=bus_89.2 linecode=LCode_126 length=1.0 units=km
new linecode.LCode_127 nphases=1 rmatrix=[0.809781] xmatrix=[1.242115] units=km
new line.line_127 bus1=bus_89.2 bus2=bus_90.2 linecode=LCode_127 length=1.0 units=km
new linecode.LCode_128 nphases=1 rmatrix=[0.601985] xmatrix=[1.242115] units=km
new line.line_128 bus1=bus_88.2 bus2=bus_91.2 linecode=LCode_128 length=1.0 units=km
new linecode.LCode_129 nphases=1 rmatrix=[0.975672] xmatrix=[1.388514] units=km
new line.line_129 bus1=bus_88.2 bus2=bus_91.2 linecode=LCode_129 length=1.0 units=km
new linecode.LCode_130 nphases=1 rmatrix=[0.953637] xmatrix=[1.242115] units=km
new line.line_130 bus1=bus_90.2 bus2=bus_91.2 linecode=LCode_130 length=1.0 units=km
new linecode.LCode_131 nphases=1 rmatrix=[0.577092] xmatrix=[1.417634] units=km
new line.line_131 bus1=bus_91.2 bus2=bus_92.2 linecode=LCode_131 length=1.0 units=km
new linecode.LCode_132 nphases=1 rmatrix=[0.405673] xmatrix=[1.242115] units=km
new line.line_132 bus1=bus_91.2 bus2=bus_93.2 linecode=LCode_132 length=1.0 units=km
new linecode.LCode_133 nphases=1 rmatrix=[0.842239] xmatrix=[1.242115] units=km
new line.line_133 bus1=bus_92.2 bus2=bus_93.2 linecode=LCode_133 length=1.0 units=km
new linecode.LCode_134 nphases=1 rmatrix=[0.985652] xmatrix=[1.489797] units=km
new line.line_134 bus1=bus_93.2 bus2=bus_94.2 linecode=LCode_134 length=1.0 units=km
new linecode.LCode_135 nphases=1 rmatrix=[0.472156] xmatrix=[1.335191] units=km
new line.line_135 bus1=bus_79.2 bus2=bus_95.2 linecode=LCode_135 length=1.0 units=km
new linecode.LCode_136 nphases=1 rmatrix=[0.995365] xmatrix=[1.242115] units=km
new line.line_136 bus1=bus_81.2 bus2=bus_95.2 linecode=LCode_136 length=1.0 units=km
new linecode.LCode_137 nphases=1 rmatrix=[0.707189] xmatrix=[1.402689] units=km
new line.line_137 bus1=bus_93.2 bus2=bus_95.2 linecode=LCode_137 length=1.0 units=km
new linecode.LCode_138 nphases=1 rmatrix=[0.323755] xmatrix=[1.268842] units=km
new line.line_138 bus1=bus_79.2 bus2=bus_96.2 linecode=LCode_138 length=1.0 units=km
new linecode.LCode_139 nphases=1 rmatrix=[0.270668] xmatrix=[1.465856] units=km
new line.line_139 bus1=bus_79.2 bus2=bus_97.2 linecode=LCode_139 length=1.0 units=km
new linecode.LCode_140 nphases=1 rmatrix=[0.859152] xmatrix=[1.243347] units=km
new line.line_140 bus1=bus_79.2 bus2=bus_98.2 linecode=LCode_140 length=1.0 units=km
new linecode.LCode_141 nphases=1 rmatrix=[0.833093] xmatrix=[1.443130] units=km
new line.line_141 bus1=bus_91.2 bus2=bus_99.2 linecode=LCode_141 length=1.0 units=km
new linecode.LCode_142 nphases=1 rmatrix=[0.567818] xmatrix=[1.242115] units=km
new line.line_142 bus1=bus_93.2 bus2=bus_99.2 linecode=LCode_142 length=1.0 units=km
new linecode.LCode_143 nphases=1 rmatrix=[0.703875] xmatrix=[1.593642] units=km
new line.line_143 bus1=bus_94.2 bus2=bus_95.2 linecode=LCode_143 length=1.0 units=km
new linecode.LCode_144 nphases=1 rmatrix=[0.285886] xmatrix=[1.242115] units=km
new line.line_144 bus1=bus_95.2 bus2=bus_96.2 linecode=LCode_144 length=1.0 units=km
new linecode.LCode_145 nphases=1 rmatrix=[0.282684] xmatrix=[1.242115] units=km
new line.line_145 bus1=bus_97.2 bus2=bus_99.2 linecode=LCode_145 length=1.0 units=km
new linecode.LCode_146 nphases=1 rmatrix=[0.825553] xmatrix=[1.273018] units=km
new line.line_146 bus1=bus_98.2 bus2=bus_99.2 linecode=LCode_146 length=1.0 units=km
new linecode.LCode_147 nphases=1 rmatrix=[0.654541] xmatrix=[1.242115] units=km
new line.line_147 bus1=bus_99.2 bus2=bus_100.2 linecode=LCode_147 length=1.0 units=km
new linecode.LCode_148 nphases=1 rmatrix=[1.105924] xmatrix=[1.473351] units=km
new line.line_148 bus1=bus_91.2 bus2=bus_101.2 linecode=LCode_148 length=1.0 units=km
new linecode.LCode_149 nphases=1 rmatrix=[0.746240] xmatrix=[1.242115] units=km
new line.line_149 bus1=bus_100.2 bus2=bus_101.2 linecode=LCode_149 length=1.0 units=km
new linecode.LCode_150 nphases=1 rmatrix=[0.874803] xmatrix=[1.242115] units=km
new line.line_150 bus1=bus_99.2 bus2=bus_102.2 linecode=LCode_150 length=1.0 units=km
new linecode.LCode_151 nphases=1 rmatrix=[1.020816] xmatrix=[1.465433] units=km
new line.line_151 bus1=bus_99.2 bus2=bus_103.2 linecode=LCode_151 length=1.0 units=km
new linecode.LCode_152 nphases=1 rmatrix=[0.612261] xmatrix=[1.242115] units=km
new line.line_152 bus1=bus_102.2 bus2=bus_103.2 linecode=LCode_152 length=1.0 units=km
new linecode.LCode_153 nphases=1 rmatrix=[0.666133] xmatrix=[1.334496] units=km
new line.line_153 bus1=bus_102.2 bus2=bus_104.2 linecode=LCode_153 length=1.0 units=km
new linecode.LCode_154 nphases=1 rmatrix=[0.553406] xmatrix=[1.242115] units=km
new line.line_154 bus1=bus_99.2 bus2=bus_105.2 linecode=LCode_154 length=1.0 units=km
new linecode.LCode_155 nphases=1 rmatrix=[0.715861] xmatrix=[1.242115] units=km
new line.line_155 bus1=bus_103.2 bus2=bus_104.2 linecode=LCode_155 length=1.0 units=km
new linecode.LCode_156 nphases=1 rmatrix=[0.444677] xmatrix=[1.358779] units=km
new line.line_156 bus1=bus_104.2 bus2=bus_105.2 linecode=LCode_156 length=1.0 units=km
new linecode.LCode_157 nphases=1 rmatrix=[0.842452] xmatrix=[1.640090] units=km
new line.line_157 bus1=bus_104.2 bus2=bus_106.2 linecode=LCode_157 length=1.0 units=km
new linecode.LCode_158 nphases=1 rmatrix=[1.110044] xmatrix=[1.300489] units=km
new line.line_158 bus1=bus_104.2 bus2=bus_107.2 linecode=LCode_158 length=1.0 units=km
new linecode.LCode_159 nphases=1 rmatrix=[0.754589] xmatrix=[1.410629] units=km
new line.line_159 bus1=bus_105.2 bus2=bus_106.2 linecode=LCode_159 length=1.0 units=km
new linecode.LCode_160 nphases=1 rmatrix=[0.622051] xmatrix=[1.538647] units=km
new line.line_160 bus1=bus_107.2 bus2=bus_108.2 linecode=LCode_160 length=1.0 units=km
new linecode.LCode_161 nphases=1 rmatrix=[0.262172] xmatrix=[1.242115] units=km
new line.line_161 bus1=bus_102.2 bus2=bus_109.2 linecode=LCode_161 length=1.0 units=km
new linecode.LCode_162 nphases=1 rmatrix=[1.099974] xmatrix=[1.246607] units=km
new line.line_162 bus1=bus_108.2 bus2=bus_109.2 linecode=LCode_162 length=1.0 units=km
new linecode.LCode_163 nphases=1 rmatrix=[0.575220] xmatrix=[1.242115] units=km
new line.line_163 bus1=bus_109.2 bus2=bus_110.2 linecode=LCode_163 length=1.0 units=km
new linecode.LCode_164 nphases=1 rmatrix=[0.660151] xmatrix=[1.475775] units=km
new line.line_164 bus1=bus_109.2 bus2=bus_111.2 linecode=LCode_164 length=1.0 units=km
new linecode.LCode_166 nphases=1 rmatrix=[0.254701] xmatrix=[1.242115] units=km
new line.line_166 bus1=bus_31.3 bus2=bus_112.3 linecode=LCode_166 length=1.0 units=km
new linecode.LCode_167 nphases=1 rmatrix=[1.026970] xmatrix=[1.242115] units=km
new line.line_167 bus1=bus_31.3 bus2=bus_113.3 linecode=LCode_167 length=1.0 units=km
new linecode.LCode_168 nphases=1 rmatrix=[0.775241] xmatrix=[1.242115] units=km
new line.line_168 bus1=bus_26.3 bus2=bus_114.3 linecode=LCode_168 length=1.0 units=km
new linecode.LCode_169 nphases=1 rmatrix=[0.907845] xmatrix=[1.242115] units=km
new line.line_169 bus1=bus_113.3 bus2=bus_114.3 linecode=LCode_169 length=1.0 units=km
new linecode.LCode_170 nphases=1 rmatrix=[1.101926] xmatrix=[1.242115] units=km
new line.line_170 bus1=bus_11.1 bus2=bus_116.1 linecode=LCode_170 length=1.0 units=km
new linecode.LCode_171 nphases=2 rmatrix=[1.212358 | 0.059160 1.212358] xmatrix=[1.357140 | 1.024695 1.357140] units=km
new line.line_171 bus1=bus_74.2.3 bus2=bus_117.2.3 linecode=LCode_171 length=1.0 units=km
new linecode.LCode_172 nphases=1 rmatrix=[0.736861] xmatrix=[1.310979] units=km
new line.line_172 bus1=bus_75.2 bus2=bus_117.2 linecode=LCode_172 length=1.0 units=km

!---------------- LOADS ----------------

new load.load_0_A bus1=bus_0.1 Phases=1 kv=157.6864406779661 kw=2016.4254440238835 kvar=661.3875456398338 vminpu=0.85
new load.load_1_A bus1=bus_1.1 Phases=1 kv=157.6864406779661 kw=2383.354082124372 kvar=781.740138936794 vminpu=0.85
new load.load_2_A bus1=bus_2.1 Phases=1 kv=157.6864406779661 kw=2046.549295750812 kvar=671.2681690062664 vminpu=0.85
new load.load_3_A bus1=bus_3.1 Phases=1 kv=157.6864406779661 kw=2620.300616703894 kvar=859.4586022788773 vminpu=0.85
new load.load_4_A bus1=bus_4.1 Phases=1 kv=157.6864406779661 kw=2172.463642479589 kvar=712.5680747333053 vminpu=0.85
new load.load_5_A bus1=bus_5.1 Phases=1 kv=157.6864406779661 kw=1390.1432722596658 kvar=455.96699330117036 vminpu=0.85
new load.load_6_A bus1=bus_6.1 Phases=1 kv=157.6864406779661 kw=1519.7454550640623 kvar=498.47650926101244 vminpu=0.85
new load.load_7_A bus1=bus_7.1 Phases=1 kv=157.6864406779661 kw=2761.539998740235 kvar=905.7851195867972 vminpu=0.85
new load.load_8_A bus1=bus_8.1 Phases=1 kv=157.6864406779661 kw=2430.451318219672 kvar=797.1880323760524 vminpu=0.85
new load.load_9_A bus1=bus_9.1 Phases=1 kv=157.6864406779661 kw=2054.894417700021 kvar=674.005369005607 vminpu=0.85
new load.load_10_A bus1=bus_10.1 Phases=1 kv=157.6864406779661 kw=2267.636536370352 kvar=743.7847839294756 vminpu=0.85
new load.load_11_A bus1=bus_11.1 Phases=1 kv=157.6864406779661 kw=2173.45995756388 kvar=712.8948660809526 vminpu=0.85
new load.load_12_B bus1=bus_12.2 Phases=1 kv=157.6864406779661 kw=1436.2338284474913 kvar=471.0846957307772 vminpu=0.85
new load.load_12_C bus1=bus_12.3 Phases=1 kv=157.6864406779661 kw=1186.7065016251065 kvar=389.23973253303495 vminpu=0.85
new load.load_13_B bus1=bus_13.2 Phases=1 kv=157.6864406779661 kw=1327.6086887793374 kvar=435.45564991962266 vminpu=0.85
new load.load_13_C bus1=bus_13.3 Phases=1 kv=157.6864406779661 kw=534.5824431418754 kvar=175.34304135053515 vminpu=0.85
new load.load_14_B bus1=bus_14.2 Phases=1 kv=157.6864406779661 kw=1104.6536383587247 kvar=362.3263933816617 vminpu=0.85
new load.load_14_C bus1=bus_14.3 Phases=1 kv=157.6864406779661 kw=105.98229759257904 kvar=34.76219361036593 vminpu=0.85
new load.load_15_A bus1=bus_15.1 Phases=1 kv=157.6864406779661 kw=2580.1030604676416 kvar=846.2738038333865 vminpu=0.85
new load.load_16_A bus1=bus_16.1 Phases=1 kv=157.6864406779661 kw=2176.151426834706 kvar=713.7776680017836 vminpu=0.85
new load.load_17_A bus1=bus_17.1 Phases=1 kv=157.6864406779661 kw=2179.087589853982 kvar=714.7407294721062 vminpu=0.85
new load.load_18_C bus1=bus_18.3 Phases=1 kv=157.6864406779661 kw=3781.2410088125935 kvar=1240.2470508905308 vminpu=0.85
new load.load_19_C bus1=bus_19.3 Phases=1 kv=157.6864406779661 kw=1883.5556179218709 kvar=617.8062426783737 vminpu=0.85
new load.load_20_C bus1=bus_20.3 Phases=1 kv=157.6864406779661 kw=1846.9238343222623 kvar=605.7910176577021 vminpu=0.85
new load.load_21_C bus1=bus_21.3 Phases=1 kv=157.6864406779661 kw=2062.3107861895064 kvar=676.4379378701582 vminpu=0.85
new load.load_22_C bus1=bus_22.3 Phases=1 kv=157.6864406779661 kw=2599.277253271963 kvar=852.562939073204 vminpu=0.85
new load.load_23_C bus1=bus_23.3 Phases=1 kv=157.6864406779661 kw=1710.7311319453215 kvar=561.1198112780655 vminpu=0.85
new load.load_24_C bus1=bus_24.3 Phases=1 kv=157.6864406779661 kw=2281.6319328669147 kvar=748.3752739803481 vminpu=0.85
new load.load_25_C bus1=bus_25.3 Phases=1 kv=157.6864406779661 kw=2114.364906133301 kvar=693.5116892117227 vminpu=0.85
new load.load_26_C bus1=bus_26.3 Phases=1 kv=157.6864406779661 kw=1913.5465263593571 kvar=627.6432606458692 vminpu=0.85
new load.load_27_C bus1=bus_27.3 Phases=1 kv=157.6864406779661 kw=1776.9547783124224 kvar=582.8411672864746 vminpu=0.85
new load.load_28_C bus1=bus_28.3 Phases=1 kv=157.6864406779661 kw=1941.1914360583437 kvar=636.7107910271368 vminpu=0.85
new load.load_29_A bus1=bus_29.1 Phases=1 kv=157.6864406779661 kw=1801.070309218501 kvar=590.7510614236684 vminpu=0.85
new load.load_30_C bus1=bus_30.3 Phases=1 kv=157.6864406779661 kw=2130.5862172290417 kvar=698.8322792511257 vminpu=0.85
new load.load_31_C bus1=bus_31.3 Phases=1 kv=157.6864406779661 kw=1800.2216281404508 kvar=590.4726940300678 vminpu=0.85
new load.load_32_B bus1=bus_32.2 Phases=1 kv=157.6864406779661 kw=352.3220696177156 kvar=115.56163883461073 vminpu=0.85
new load.load_32_C bus1=bus_32.3 Phases=1 kv=157.6864406779661 kw=1994.8993541421703 kvar=654.3269881586319 vminpu=0.85
new load.load_33_C bus1=bus_33.3 Phases=1 kv=157.6864406779661 kw=2140.413288767236 kvar=702.0555587156534 vminpu=0.85
new load.load_34_B bus1=bus_34.2 Phases=1 kv=157.6864406779661 kw=4.263158940529627 kvar=1.398316132493718 vminpu=0.85
new load.load_34_C bus1=bus_34.3 Phases=1 kv=157.6864406779661 kw=1935.7847365049413 kvar=634.9373935736207 vminpu=0.85
new load.load_35_B bus1=bus_35.2 Phases=1 kv=157.6864406779661 kw=1143.470082382212 kvar=375.05818702136554 vminpu=0.85
new load.load_35_C bus1=bus_35.3 Phases=1 kv=157.6864406779661 kw=1174.7348716799486 kvar=385.3130379110232 vminpu=0.85
new load.load_36_B bus1=bus_36.2 Phases=1 kv=157.6864406779661 kw=283.953361279602 kvar=93.13670249970946 vminpu=0.85
new load.load_36_C bus1=bus_36.3 Phases=1 kv=157.6864406779661 kw=2009.6658007953615 kvar=659.1703826608787 vminpu=0.85
new load.load_37_A bus1=bus_37.1 Phases=1 kv=157.6864406779661 kw=1843.284841264618 kvar=604.5974279347947 vminpu=0.85
new load.load_38_B bus1=bus_38.2 Phases=1 kv=157.6864406779661 kw=153.81451874151654 kvar=50.451162147217424 vminpu=0.85
new load.load_38_C bus1=bus_38.3 Phases=1 kv=157.6864406779661 kw=2278.324248585752 kvar=747.2903535361266 vminpu=0.85
new load.load_39_B bus1=bus_39.2 Phases=1 kv=157.6864406779661 kw=1031.3686138691476 kvar=338.28890534908044 vminpu=0.85
new load.load_39_C bus1=bus_39.3 Phases=1 kv=157.6864406779661 kw=819.4589488207954 kvar=268.7825352132209 vminpu=0.85
new load.load_40_B bus1=bus_40.2 Phases=1 kv=157.6864406779661 kw=423.5243371387706 kvar=138.91598258151677 vminpu=0.85
new load.load_40_C bus1=bus_40.3 Phases=1 kv=157.6864406779661 kw=1642.8217818413036 kvar=538.8455444439476 vminpu=0.85
new load.load_41_B bus1=bus_41.2 Phases=1 kv=157.6864406779661 kw=850.0513643175798 kvar=278.8168474961662 vminpu=0.85
new load.load_41_C bus1=bus_41.3 Phases=1 kv=157.6864406779661 kw=1097.948859010421 kvar=360.1272257554181 vminpu=0.85
new load.load_42_B bus1=bus_42.2 Phases=1 kv=157.6864406779661 kw=756.1799555224483 kvar=248.02702541136304 vminpu=0.85
new load.load_42_C bus1=bus_42.3 Phases=1 kv=157.6864406779661 kw=736.5754007537837 kvar=241.59673144724107 vminpu=0.85
new load.load_43_B bus1=bus_43.2 Phases=1 kv=157.6864406779661 kw=67.05929572873711 kvar=21.995448999025772 vminpu=0.85
new load.load_43_C bus1=bus_43.3 Phases=1 kv=157.6864406779661 kw=1747.4689157745206 kvar=573.1698043740428 vminpu=0.85
new load.load_44_B bus1=bus_44.2 Phases=1 kv=157.6864406779661 kw=1061.6945325360643 kvar=348.2358066718291 vminpu=0.85
new load.load_44_C bus1=bus_44.3 Phases=1 kv=157.6864406779661 kw=1417.2336964599224 kvar=464.85265243885453 vminpu=0.85
new load.load_45_B bus1=bus_45.2 Phases=1 kv=157.6864406779661 kw=1081.6416635891644 kvar=354.77846565724593 vminpu=0.85
new load.load_45_C bus1=bus_45.3 Phases=1 kv=157.6864406779661 kw=1290.0313341360843 kvar=423.13027759663566 vminpu=0.85
new load.load_46_B bus1=bus_46.2 Phases=1 kv=157.6864406779661 kw=728.5584752674904 kvar=238.96717988773685 vminpu=0.85
new load.load_46_C bus1=bus_46.3 Phases=1 kv=157.6864406779661 kw=1649.9471884752732 kvar=541.1826778198896 vminpu=0.85
new load.load_47_B bus1=bus_47.2 Phases=1 kv=157.6864406779661 kw=573.1050251001802 kvar=187.97844823285914 vminpu=0.85
new load.load_47_C bus1=bus_47.3 Phases=1 kv=157.6864406779661 kw=1294.8097228678143 kvar=424.69758910064314 vminpu=0.85
new load.load_48_B bus1=bus_48.2 Phases=1 kv=157.6864406779661 kw=369.67948658833154 kvar=121.25487160097275 vminpu=0.85
new load.load_48_C bus1=bus_48.3 Phases=1 kv=157.6864406779661 kw=2133.544953208217 kvar=699.8027446522952 vminpu=0.85
new load.load_49_B bus1=bus_49.2 Phases=1 kv=157.6864406779661 kw=374.8808607598049 kvar=122.960922329216 vminpu=0.85
new load.load_49_C bus1=bus_49.3 Phases=1 kv=157.6864406779661 kw=1712.7890658498527 kvar=561.7948135987517 vminpu=0.85
new load.load_50_B bus1=bus_50.2 Phases=1 kv=157.6864406779661 kw=1360.814732732977 kvar=446.3472323364165 vminpu=0.85
new load.load_50_C bus1=bus_50.3 Phases=1 kv=157.6864406779661 kw=1042.50144223529 kvar=341.9404730531751 vminpu=0.85
new load.load_51_B bus1=bus_51.2 Phases=1 kv=157.6864406779661 kw=1523.3117193389128 kvar=499.6462439431634 vminpu=0.85
new load.load_51_C bus1=bus_51.3 Phases=1 kv=157.6864406779661 kw=378.4300327813186 kvar=124.1250507522725 vminpu=0.85
new load.load_52_B bus1=bus_52.2 Phases=1 kv=157.6864406779661 kw=372.6490783325669 kvar=122.22889769308195 vminpu=0.85
new load.load_52_C bus1=bus_52.3 Phases=1 kv=157.6864406779661 kw=1471.0234276500291 kvar=482.49568426920956 vminpu=0.85
new load.load_53_B bus1=bus_53.2 Phases=1 kv=157.6864406779661 kw=804.5264779507553 kvar=263.8846847678478 vminpu=0.85
new load.load_53_C bus1=bus_53.3 Phases=1 kv=157.6864406779661 kw=1193.569046277689 kvar=391.49064717908203 vminpu=0.85
new load.load_54_A bus1=bus_54.1 Phases=1 kv=157.6864406779661 kw=2472.3815932262005 kvar=810.9411625781938 vminpu=0.85
new load.load_55_C bus1=bus_55.3 Phases=1 kv=157.6864406779661 kw=2367.9952600128927 kvar=776.7024452842288 vminpu=0.85
new load.load_56_B bus1=bus_56.2 Phases=1 kv=157.6864406779661 kw=1455.4570323231644 kvar=477.38990660199795 vminpu=0.85
new load.load_56_C bus1=bus_56.3 Phases=1 kv=157.6864406779661 kw=415.34253336241073 kvar=136.23235094287074 vminpu=0.85
new load.load_57_B bus1=bus_57.2 Phases=1 kv=157.6864406779661 kw=95.61005650603688 kvar=31.3600985339801 vminpu=0.85
new load.load_57_C bus1=bus_57.3 Phases=1 kv=157.6864406779661 kw=1827.2676472819237 kvar=599.343788308471 vminpu=0.85
new load.load_58_B bus1=bus_58.2 Phases=1 kv=157.6864406779661 kw=442.43468219667056 kvar=145.11857576050795 vminpu=0.85
new load.load_58_C bus1=bus_58.3 Phases=1 kv=157.6864406779661 kw=1112.2935581584004 kvar=364.8322870759553 vminpu=0.85
new load.load_59_B bus1=bus_59.2 Phases=1 kv=157.6864406779661 kw=831.8365268479878 kvar=272.84238080614 vminpu=0.85
new load.load_59_C bus1=bus_59.3 Phases=1 kv=157.6864406779661 kw=629.513207753302 kvar=206.48033214308307 vminpu=0.85
new load.load_60_C bus1=bus_60.3 Phases=1 kv=157.6864406779661 kw=2304.0802734516574 kvar=755.7383296921437 vminpu=0.85
new load.load_61_C bus1=bus_61.3 Phases=1 kv=157.6864406779661 kw=2123.5445288844708 kvar=696.5226054741064 vminpu=0.85
new load.load_62_A bus1=bus_62.1 Phases=1 kv=157.6864406779661 kw=1490.5898021881212 kvar=488.9134551177038 vminpu=0.85
new load.load_63_A bus1=bus_63.1 Phases=1 kv=157.6864406779661 kw=2425.3043180499167 kvar=795.4998163203727 vminpu=0.85
new load.load_64_A bus1=bus_64.1 Phases=1 kv=157.6864406779661 kw=2524.712086374557 kvar=828.1055643308548 vminpu=0.85
new load.load_65_B bus1=bus_65.2 Phases=1 kv=157.6864406779661 kw=456.752028084457 kvar=149.8146652117019 vminpu=0.85
new load.load_65_C bus1=bus_65.3 Phases=1 kv=157.6864406779661 kw=1323.104362010657 kvar=433.97823073949553 vminpu=0.85
new load.load_66_B bus1=bus_66.2 Phases=1 kv=157.6864406779661 kw=319.7659496882007 kvar=104.88323149772984 vminpu=0.85
new load.load_66_C bus1=bus_66.3 Phases=1 kv=157.6864406779661 kw=2033.044525425425 kvar=666.8386043395394 vminpu=0.85
new load.load_67_B bus1=bus_67.2 Phases=1 kv=157.6864406779661 kw=292.9744572983475 kvar=96.09562199385797 vminpu=0.85
new load.load_67_C bus1=bus_67.3 Phases=1 kv=157.6864406779661 kw=1716.6516650322765 kvar=563.0617461305867 vminpu=0.85
new load.load_69_A bus1=bus_69.1 Phases=1 kv=157.6864406779661 kw=1789.296676072721 kvar=586.8893097518526 vminpu=0.85
new load.load_69_C bus1=bus_69.3 Phases=1 kv=157.6864406779661 kw=886.4859873803541 kvar=290.7674038607562 vminpu=0.85
new load.load_70_A bus1=bus_70.1 Phases=1 kv=157.6864406779661 kw=70.91363333487514 kvar=23.25967173383905 vminpu=0.85
new load.load_70_C bus1=bus_70.3 Phases=1 kv=157.6864406779661 kw=1769.2365432430545 kvar=580.3095861837219 vminpu=0.85
new load.load_71_C bus1=bus_71.3 Phases=1 kv=157.6864406779661 kw=2035.1835269422556 kvar=667.5401968370599 vminpu=0.85
new load.load_72_B bus1=bus_72.2 Phases=1 kv=157.6864406779661 kw=2132.9698731570984 kvar=699.6141183955283 vminpu=0.85
new load.load_73_A bus1=bus_73.1 Phases=1 kv=157.6864406779661 kw=1578.521567260531 kvar=517.7550740614541 vminpu=0.85
new load.load_73_C bus1=bus_73.3 Phases=1 kv=157.6864406779661 kw=247.5385724316964 kvar=81.19265175759642 vminpu=0.85
new load.load_74_B bus1=bus_74.2 Phases=1 kv=157.6864406779661 kw=844.8436923292963 kvar=277.1087310840092 vminpu=0.85
new load.load_74_C bus1=bus_74.3 Phases=1 kv=157.6864406779661 kw=943.4521492741976 kvar=309.4523049619368 vminpu=0.85
new load.load_75_B bus1=bus_75.2 Phases=1 kv=157.6864406779661 kw=1964.8492079954 kvar=644.4705402224913 vminpu=0.85
new load.load_76_B bus1=bus_76.2 Phases=1 kv=157.6864406779661 kw=1976.366822514812 kvar=648.2483177848584 vminpu=0.85
new load.load_77_B bus1=bus_77.2 Phases=1 kv=157.6864406779661 kw=2180.825084988911 kvar=715.3106278763628 vminpu=0.85
new load.load_78_B bus1=bus_78.2 Phases=1 kv=157.6864406779661 kw=1849.0701181211627 kvar=606.4949987437415 vminpu=0.85
new load.load_79_B bus1=bus_79.2 Phases=1 kv=157.6864406779661 kw=1500.4741608180432 kvar=492.15552474831816 vminpu=0.85
new load.load_80_B bus1=bus_80.2 Phases=1 kv=157.6864406779661 kw=994.8281600062112 kvar=326.3036364820373 vminpu=0.85
new load.load_80_C bus1=bus_80.3 Phases=1 kv=157.6864406779661 kw=1100.5953952051932 kvar=360.9952896273034 vminpu=0.85
new load.load_81_B bus1=bus_81.2 Phases=1 kv=157.6864406779661 kw=2173.62909506955 kvar=712.9503431828125 vminpu=0.85
new load.load_82_B bus1=bus_82.2 Phases=1 kv=157.6864406779661 kw=2181.127282740479 kvar=715.4097487388772 vminpu=0.85
new load.load_83_B bus1=bus_83.2 Phases=1 kv=157.6864406779661 kw=2294.659753916452 kvar=752.6483992845962 vminpu=0.85
new load.load_84_B bus1=bus_84.2 Phases=1 kv=157.6864406779661 kw=1968.5522162305056 kvar=645.6851269236058 vminpu=0.85
new load.load_85_B bus1=bus_85.2 Phases=1 kv=157.6864406779661 kw=1968.8527323311944 kvar=645.7836962046318 vminpu=0.85
new load.load_86_B bus1=bus_86.2 Phases=1 kv=157.6864406779661 kw=2358.423730608853 kvar=773.5629836397038 vminpu=0.85
new load.load_87_B bus1=bus_87.2 Phases=1 kv=157.6864406779661 kw=2225.6290621721646 kvar=730.00633239247 vminpu=0.85
new load.load_88_B bus1=bus_88.2 Phases=1 kv=157.6864406779661 kw=2297.1890362240865 kvar=753.4780038815004 vminpu=0.85
new load.load_89_B bus1=bus_89.2 Phases=1 kv=157.6864406779661 kw=1765.2441718430166 kvar=579.0000883645095 vminpu=0.85
new load.load_90_B bus1=bus_90.2 Phases=1 kv=157.6864406779661 kw=1783.7210000330283 kvar=585.0604880108333 vminpu=0.85
new load.load_91_B bus1=bus_91.2 Phases=1 kv=157.6864406779661 kw=2334.5040235717383 kvar=765.7173197315302 vminpu=0.85
new load.load_92_B bus1=bus_92.2 Phases=1 kv=157.6864406779661 kw=1593.2954246708628 kvar=522.600899292043 vminpu=0.85
new load.load_93_B bus1=bus_93.2 Phases=1 kv=157.6864406779661 kw=1829.573238008572 kvar=600.1000220668117 vminpu=0.85
new load.load_94_B bus1=bus_94.2 Phases=1 kv=157.6864406779661 kw=1835.6052382267465 kvar=602.0785181383728 vminpu=0.85
new load.load_95_B bus1=bus_95.2 Phases=1 kv=157.6864406779661 kw=2059.583724921595 kvar=675.5434617742833 vminpu=0.85
new load.load_96_B bus1=bus_96.2 Phases=1 kv=157.6864406779661 kw=1616.016777422306 kvar=530.0535029945164 vminpu=0.85
new load.load_97_B bus1=bus_97.2 Phases=1 kv=157.6864406779661 kw=3021.1244046193165 kvar=990.9288047151358 vminpu=0.85
new load.load_98_B bus1=bus_98.2 Phases=1 kv=157.6864406779661 kw=1642.014192814062 kvar=538.5806552430123 vminpu=0.85
new load.load_99_B bus1=bus_99.2 Phases=1 kv=157.6864406779661 kw=1705.3224443907889 kvar=559.3457617601788 vminpu=0.85
new load.load_100_B bus1=bus_100.2 Phases=1 kv=157.6864406779661 kw=1827.7729129089585 kvar=599.5095154341384 vminpu=0.85
new load.load_101_B bus1=bus_101.2 Phases=1 kv=157.6864406779661 kw=2549.1075308555414 kvar=836.1072701206176 vminpu=0.85
new load.load_102_B bus1=bus_102.2 Phases=1 kv=157.6864406779661 kw=1578.4957590579406 kvar=517.7466089710045 vminpu=0.85
new load.load_103_B bus1=bus_103.2 Phases=1 kv=157.6864406779661 kw=2637.434689191179 kvar=865.0785780547068 vminpu=0.85
new load.load_104_B bus1=bus_104.2 Phases=1 kv=157.6864406779661 kw=2439.5326255037858 kvar=800.1667011652418 vminpu=0.85
new load.load_105_B bus1=bus_105.2 Phases=1 kv=157.6864406779661 kw=1786.74874400855 kvar=586.0535880348044 vminpu=0.85
new load.load_106_B bus1=bus_106.2 Phases=1 kv=157.6864406779661 kw=1527.8058258580356 kvar=501.1203108814357 vminpu=0.85
new load.load_107_B bus1=bus_107.2 Phases=1 kv=157.6864406779661 kw=1592.8991420903033 kvar=522.4709186056195 vminpu=0.85
new load.load_108_B bus1=bus_108.2 Phases=1 kv=157.6864406779661 kw=1655.141179581801 kvar=542.8863069028307 vminpu=0.85
new load.load_109_B bus1=bus_109.2 Phases=1 kv=157.6864406779661 kw=2821.281165851961 kvar=925.3802223994431 vminpu=0.85
new load.load_110_B bus1=bus_110.2 Phases=1 kv=157.6864406779661 kw=1279.7165789043172 kvar=419.74703788061606 vminpu=0.85
new load.load_111_B bus1=bus_111.2 Phases=1 kv=157.6864406779661 kw=3148.4216613028384 kvar=1032.682304907331 vminpu=0.85
new load.load_112_C bus1=bus_112.3 Phases=1 kv=157.6864406779661 kw=2023.368295227647 kvar=663.6648008346682 vminpu=0.85
new load.load_113_C bus1=bus_113.3 Phases=1 kv=157.6864406779661 kw=1943.8885665484784 kvar=637.5954498279009 vminpu=0.85
new load.load_114_C bus1=bus_114.3 Phases=1 kv=157.6864406779661 kw=2095.694607582408 kvar=687.3878312870298 vminpu=0.85
new load.load_115_B bus1=bus_115.2 Phases=1 kv=157.6864406779661 kw=1685.3957730201669 kvar=552.8098135506148 vminpu=0.85
new load.load_115_C bus1=bus_115.3 Phases=1 kv=157.6864406779661 kw=642.3463789662735 kvar=210.6896123009377 vminpu=0.85
new load.load_116_A bus1=bus_116.1 Phases=1 kv=157.6864406779661 kw=2107.2757223802178 kvar=691.1864369407115 vminpu=0.85
new load.load_117_B bus1=bus_117.2 Phases=1 kv=157.6864406779661 kw=1778.2562315449477 kvar=583.2680439467429 vminpu=0.85
new load.load_117_C bus1=bus_117.3 Phases=1 kv=157.6864406779661 kw=114.34292582303756 kvar=37.504479669956325 vminpu=0.85

!---------------- SOLUTION ----------------

set controlmode=off
Set Voltagebases=[157.6864406779661]
calcv
Solve